/*--------------------------------*- C++ -*----------------------------------*\
| =========                 |                                                 |
| \\      /  F ield         | OpenFOAM: The Open Source CFD Toolbox           |
|  \\    /   O peration     | Version:  5                                     |
|   \\  /    A nd           | Web:      www.OpenFOAM.org                      |
|    \\/     M anipulation  |                                                 |
\*---------------------------------------------------------------------------*/
FoamFile
{
    version     2.0;
    format      ascii;
    class       dictionary;
    location    "system";
    object      fvSolution;
}
// * * * * * * * * * * * * * * * * * * * * * * * * * * * * * * * * * * * * * //

solvers
{
   
     p
    {
        solver          GAMG;
        smoother        GaussSeidel;
        tolerance       1e-5;
        relTol          0.01;
    }
     Phi
    {
        $p;
    }


    "(U|k|epsilon)"
    {
         solver          smoothSolver;
        smoother        GaussSeidel;
        tolerance       1e-5;
        relTol          0.1;
        nSweeps         1;
    }
}

SIMPLE
{
    nNonOrthogonalCorrectors 2;
    pRefCell        0;
    pRefValue       0;

    residualControl
    {
        p_rgh           1e-4;
        U               1e-4;
     
        // possibly check turbulence fields
        "(k|epsilon|omega|p)" 1e-5;
    }
}

relaxationFactors
{
    fields
    {
        p_rgh           0.7;
    }
    equations
    {
        U               0.2;
       "(k|epsilon)"   0.7;
    }
}


// ************************************************************************* //
